wang_VLL_Node.Txt

LINE-LINE VOLTAGES BY BUS & NODE

Bus  Node    VLN (kV)   Angle      pu     Base kV 

B1 . 1-2     10.838 /_   29.8    0.9853    11.000
   - 2-3      10.84 /_  -90.2   0.98543    11.000
   - 3-1      10.84 /_  149.8   0.98546    11.000
B2 . 1-2     10.829 /_   29.9   0.98448    11.000
   - 2-3     10.831 /_  -90.1   0.98463    11.000
   - 3-1     10.831 /_  149.8   0.98462    11.000
B3 . 1-2     9.9247 /_   27.9   0.90224    11.000
   - 2-3     10.032 /_  -92.3   0.91203    11.000
   - 3-1     9.9595 /_  147.3   0.90541    11.000
B4 . 1-2     9.5359 /_   28.0    0.8669    11.000
   - 2-3     9.6593 /_  -92.2   0.87812    11.000
   - 3-1     9.5762 /_  147.3   0.87056    11.000
B5 . 1-2     9.4945 /_   27.5   0.86313    11.000
   - 2-3     9.6202 /_  -92.6   0.87457    11.000
   - 3-1     9.5395 /_  146.8   0.86723    11.000
B6 . 1-2      9.263 /_   27.5   0.84209    11.000
   - 2-3     9.3981 /_  -92.6   0.85437    11.000
   - 3-1     9.3113 /_  146.8   0.84648    11.000
B7 . 1-2     8.9851 /_   27.6   0.81683    11.000
   - 2-3     9.1316 /_  -92.5   0.83014    11.000
   - 3-1     9.0375 /_  146.7   0.82159    11.000
B8 . 1-2     8.7999 /_   27.7   0.79999    11.000
   - 2-3     8.9539 /_  -92.5   0.81399    11.000
   - 3-1      8.855 /_  146.7     0.805    11.000
